data_image0
_chemical_formula_structural       Cu16H248C328S17N62O46F54
_chemical_formula_sum              "Cu16 H248 C328 S17 N62 O46 F54"
_cell_length_a       17.986
_cell_length_b       28.576
_cell_length_c       28.576
_cell_angle_alpha    90
_cell_angle_beta     90
_cell_angle_gamma    90

_space_group_name_H-M_alt    "P 1"
_space_group_IT_number       1

loop_
  _space_group_symop_operation_xyz
  'x, y, z'

loop_
  _atom_site_type_symbol
  _atom_site_label
  _atom_site_symmetry_multiplicity
  _atom_site_fract_x
  _atom_site_fract_y
  _atom_site_fract_z
  _atom_site_occupancy
  Cu  Cu1       1.0  0.00000  0.75000  0.25963  1.0000
  Cu  Cu2       1.0  0.50000  0.75000  0.74037  1.0000
  Cu  Cu3       1.0  0.25000  0.99037  0.50000  1.0000
  Cu  Cu4       1.0  0.75000  0.50963  0.50000  1.0000
  Cu  Cu5       1.0  0.50000  0.25000  0.75963  1.0000
  Cu  Cu6       1.0  0.00000  0.25000  0.24037  1.0000
  Cu  Cu7       1.0  0.75000  0.49037  0.00000  1.0000
  Cu  Cu8       1.0  0.25000  0.00963  0.00000  1.0000
  Cu  Cu9       1.0  0.00000  0.25000  0.74037  1.0000
  Cu  Cu10      1.0  0.50000  0.25000  0.25963  1.0000
  Cu  Cu11      1.0  0.25000  0.50963  0.00000  1.0000
  Cu  Cu12      1.0  0.75000  0.99037  0.00000  1.0000
  Cu  Cu13      1.0  0.50000  0.75000  0.24037  1.0000
  Cu  Cu14      1.0  0.00000  0.75000  0.75963  1.0000
  Cu  Cu15      1.0  0.25000  0.50963  0.50000  1.0000
  Cu  Cu16      1.0  0.25000  0.99037  0.00000  1.0000
  H   H1        1.0  0.14850  0.71230  0.28270  1.0000
  H   H2        1.0  0.64850  0.78770  0.71730  1.0000
  H   H3        1.0  0.39850  0.96730  0.46230  1.0000
  H   H4        1.0  0.89850  0.53270  0.53770  1.0000
  H   H5        1.0  0.85150  0.78770  0.28270  1.0000
  H   H6        1.0  0.35150  0.71230  0.71730  1.0000
  H   H7        1.0  0.60150  0.53270  0.46230  1.0000
  H   H8        1.0  0.10150  0.96730  0.53770  1.0000
  H   H9        1.0  0.64850  0.21230  0.78270  1.0000
  H   H10       1.0  0.14850  0.28770  0.21730  1.0000
  H   H11       1.0  0.89850  0.46730  0.96230  1.0000
  H   H12       1.0  0.39850  0.03270  0.03770  1.0000
  H   H13       1.0  0.35150  0.28770  0.78270  1.0000
  H   H14       1.0  0.85150  0.21230  0.21730  1.0000
  H   H15       1.0  0.10150  0.03270  0.96230  1.0000
  H   H16       1.0  0.60150  0.46730  0.03770  1.0000
  H   H17       1.0  0.85150  0.28770  0.71730  1.0000
  H   H18       1.0  0.35150  0.21230  0.28270  1.0000
  H   H19       1.0  0.10150  0.53270  0.03770  1.0000
  H   H20       1.0  0.60150  0.96730  0.96230  1.0000
  H   H21       1.0  0.14850  0.21230  0.71730  1.0000
  H   H22       1.0  0.64850  0.28770  0.28270  1.0000
  H   H23       1.0  0.89850  0.96730  0.03770  1.0000
  H   H24       1.0  0.39850  0.53270  0.96230  1.0000
  H   H25       1.0  0.35150  0.78770  0.21730  1.0000
  H   H26       1.0  0.85150  0.71230  0.78270  1.0000
  H   H27       1.0  0.10150  0.53270  0.53770  1.0000
  H   H28       1.0  0.10150  0.96730  0.96230  1.0000
  H   H29       1.0  0.64850  0.71230  0.21730  1.0000
  H   H30       1.0  0.14850  0.78770  0.78270  1.0000
  H   H31       1.0  0.39850  0.96730  0.53770  1.0000
  H   H32       1.0  0.20190  0.65750  0.33180  1.0000
  H   H33       1.0  0.70190  0.84250  0.66820  1.0000
  H   H34       1.0  0.45190  0.91820  0.40750  1.0000
  H   H35       1.0  0.95190  0.58180  0.59250  1.0000
  H   H36       1.0  0.79810  0.84250  0.33180  1.0000
  H   H37       1.0  0.29810  0.65750  0.66820  1.0000
  H   H38       1.0  0.54810  0.58180  0.40750  1.0000
  H   H39       1.0  0.04810  0.91820  0.59250  1.0000
  H   H40       1.0  0.70190  0.15750  0.83180  1.0000
  H   H41       1.0  0.20190  0.34250  0.16820  1.0000
  H   H42       1.0  0.95190  0.41820  0.90750  1.0000
  H   H43       1.0  0.45190  0.08180  0.09250  1.0000
  H   H44       1.0  0.29810  0.34250  0.83180  1.0000
  H   H45       1.0  0.79810  0.15750  0.16820  1.0000
  H   H46       1.0  0.04810  0.08180  0.90750  1.0000
  H   H47       1.0  0.54810  0.41820  0.09250  1.0000
  H   H48       1.0  0.79810  0.34250  0.66820  1.0000
  H   H49       1.0  0.29810  0.15750  0.33180  1.0000
  H   H50       1.0  0.04810  0.58180  0.09250  1.0000
  H   H51       1.0  0.54810  0.91820  0.90750  1.0000
  H   H52       1.0  0.20190  0.15750  0.66820  1.0000
  H   H53       1.0  0.70190  0.34250  0.33180  1.0000
  H   H54       1.0  0.95190  0.91820  0.09250  1.0000
  H   H55       1.0  0.45190  0.58180  0.90750  1.0000
  H   H56       1.0  0.29810  0.84250  0.16820  1.0000
  H   H57       1.0  0.79810  0.65750  0.83180  1.0000
  H   H58       1.0  0.04810  0.58180  0.59250  1.0000
  H   H59       1.0  0.04810  0.91820  0.90750  1.0000
  H   H60       1.0  0.70190  0.65750  0.16820  1.0000
  H   H61       1.0  0.20190  0.84250  0.83180  1.0000
  H   H62       1.0  0.45190  0.91820  0.59250  1.0000
  H   H63       1.0  0.00340  0.64140  0.39550  1.0000
  H   H64       1.0  0.50340  0.85860  0.60450  1.0000
  H   H65       1.0  0.25340  0.85450  0.39140  1.0000
  H   H66       1.0  0.75340  0.64550  0.60860  1.0000
  H   H67       1.0  0.99660  0.85860  0.39550  1.0000
  H   H68       1.0  0.49660  0.64140  0.60450  1.0000
  H   H69       1.0  0.74660  0.64550  0.39140  1.0000
  H   H70       1.0  0.24660  0.85450  0.60860  1.0000
  H   H71       1.0  0.50340  0.14140  0.89550  1.0000
  H   H72       1.0  0.00340  0.35860  0.10450  1.0000
  H   H73       1.0  0.75340  0.35450  0.89140  1.0000
  H   H74       1.0  0.25340  0.14550  0.10860  1.0000
  H   H75       1.0  0.49660  0.35860  0.89550  1.0000
  H   H76       1.0  0.99660  0.14140  0.10450  1.0000
  H   H77       1.0  0.24660  0.14550  0.89140  1.0000
  H   H78       1.0  0.74660  0.35450  0.10860  1.0000
  H   H79       1.0  0.99660  0.35860  0.60450  1.0000
  H   H80       1.0  0.49660  0.14140  0.39550  1.0000
  H   H81       1.0  0.24660  0.64550  0.10860  1.0000
  H   H82       1.0  0.74660  0.85450  0.89140  1.0000
  H   H83       1.0  0.00340  0.14140  0.60450  1.0000
  H   H84       1.0  0.50340  0.35860  0.39550  1.0000
  H   H85       1.0  0.75340  0.85450  0.10860  1.0000
  H   H86       1.0  0.25340  0.64550  0.89140  1.0000
  H   H87       1.0  0.49660  0.85860  0.10450  1.0000
  H   H88       1.0  0.99660  0.64140  0.89550  1.0000
  H   H89       1.0  0.24660  0.64550  0.60860  1.0000
  H   H90       1.0  0.24660  0.85450  0.89140  1.0000
  H   H91       1.0  0.50340  0.64140  0.10450  1.0000
  H   H92       1.0  0.00340  0.85860  0.89550  1.0000
  H   H93       1.0  0.25340  0.85450  0.60860  1.0000
  H   H94       1.0  0.95430  0.69620  0.34460  1.0000
  H   H95       1.0  0.45430  0.80380  0.65540  1.0000
  H   H96       1.0  0.20430  0.90540  0.44620  1.0000
  H   H97       1.0  0.70430  0.59460  0.55380  1.0000
  H   H98       1.0  0.04570  0.80380  0.34460  1.0000
  H   H99       1.0  0.54570  0.69620  0.65540  1.0000
  H   H100      1.0  0.79570  0.59460  0.44620  1.0000
  H   H101      1.0  0.29570  0.90540  0.55380  1.0000
  H   H102      1.0  0.45430  0.19620  0.84460  1.0000
  H   H103      1.0  0.95430  0.30380  0.15540  1.0000
  H   H104      1.0  0.70430  0.40540  0.94620  1.0000
  H   H105      1.0  0.20430  0.09460  0.05380  1.0000
  H   H106      1.0  0.54570  0.30380  0.84460  1.0000
  H   H107      1.0  0.04570  0.19620  0.15540  1.0000
  H   H108      1.0  0.29570  0.09460  0.94620  1.0000
  H   H109      1.0  0.79570  0.40540  0.05380  1.0000
  H   H110      1.0  0.04570  0.30380  0.65540  1.0000
  H   H111      1.0  0.54570  0.19620  0.34460  1.0000
  H   H112      1.0  0.29570  0.59460  0.05380  1.0000
  H   H113      1.0  0.79570  0.90540  0.94620  1.0000
  H   H114      1.0  0.95430  0.19620  0.65540  1.0000
  H   H115      1.0  0.45430  0.30380  0.34460  1.0000
  H   H116      1.0  0.70430  0.90540  0.05380  1.0000
  H   H117      1.0  0.20430  0.59460  0.94620  1.0000
  H   H118      1.0  0.54570  0.80380  0.15540  1.0000
  H   H119      1.0  0.04570  0.69620  0.84460  1.0000
  H   H120      1.0  0.29570  0.59460  0.55380  1.0000
  H   H121      1.0  0.29570  0.90540  0.94620  1.0000
  H   H122      1.0  0.45430  0.69620  0.15540  1.0000
  H   H123      1.0  0.95430  0.80380  0.84460  1.0000
  H   H124      1.0  0.20430  0.90540  0.55380  1.0000
  H   H125      1.0  0.01220  0.84740  0.22640  1.0000
  H   H126      1.0  0.51220  0.65260  0.77360  1.0000
  H   H127      1.0  0.26220  0.02360  0.59740  1.0000
  H   H128      1.0  0.76220  0.47640  0.40260  1.0000
  H   H129      1.0  0.98780  0.65260  0.22640  1.0000
  H   H130      1.0  0.48780  0.84740  0.77360  1.0000
  H   H131      1.0  0.73780  0.47640  0.59740  1.0000
  H   H132      1.0  0.23780  0.02360  0.40260  1.0000
  H   H133      1.0  0.51220  0.34740  0.72640  1.0000
  H   H134      1.0  0.01220  0.15260  0.27360  1.0000
  H   H135      1.0  0.76220  0.52360  0.09740  1.0000
  H   H136      1.0  0.26220  0.97640  0.90260  1.0000
  H   H137      1.0  0.48780  0.15260  0.72640  1.0000
  H   H138      1.0  0.98780  0.34740  0.27360  1.0000
  H   H139      1.0  0.23780  0.97640  0.09740  1.0000
  H   H140      1.0  0.73780  0.52360  0.90260  1.0000
  H   H141      1.0  0.98780  0.15260  0.77360  1.0000
  H   H142      1.0  0.48780  0.34740  0.22640  1.0000
  H   H143      1.0  0.23780  0.47640  0.90260  1.0000
  H   H144      1.0  0.73780  0.02360  0.09740  1.0000
  H   H145      1.0  0.01220  0.34740  0.77360  1.0000
  H   H146      1.0  0.51220  0.15260  0.22640  1.0000
  H   H147      1.0  0.76220  0.02360  0.90260  1.0000
  H   H148      1.0  0.26220  0.47640  0.09740  1.0000
  H   H149      1.0  0.48780  0.65260  0.27360  1.0000
  H   H150      1.0  0.98780  0.84740  0.72640  1.0000
  H   H151      1.0  0.23780  0.47640  0.40260  1.0000
  H   H152      1.0  0.23780  0.02360  0.09740  1.0000
  H   H153      1.0  0.51220  0.84740  0.27360  1.0000
  H   H154      1.0  0.01220  0.65260  0.72640  1.0000
  H   H155      1.0  0.26220  0.02360  0.40260  1.0000
  H   H156      1.0  0.96160  0.89720  0.17160  1.0000
  H   H157      1.0  0.46160  0.60280  0.82840  1.0000
  H   H158      1.0  0.21160  0.07840  0.64720  1.0000
  H   H159      1.0  0.71160  0.42160  0.35280  1.0000
  H   H160      1.0  0.03840  0.60280  0.17160  1.0000
  H   H161      1.0  0.53840  0.89720  0.82840  1.0000
  H   H162      1.0  0.78840  0.42160  0.64720  1.0000
  H   H163      1.0  0.28840  0.07840  0.35280  1.0000
  H   H164      1.0  0.46160  0.39720  0.67160  1.0000
  H   H165      1.0  0.96160  0.10280  0.32840  1.0000
  H   H166      1.0  0.71160  0.57840  0.14720  1.0000
  H   H167      1.0  0.21160  0.92160  0.85280  1.0000
  H   H168      1.0  0.53840  0.10280  0.67160  1.0000
  H   H169      1.0  0.03840  0.39720  0.32840  1.0000
  H   H170      1.0  0.28840  0.92160  0.14720  1.0000
  H   H171      1.0  0.78840  0.57840  0.85280  1.0000
  H   H172      1.0  0.03840  0.10280  0.82840  1.0000
  H   H173      1.0  0.53840  0.39720  0.17160  1.0000
  H   H174      1.0  0.28840  0.42160  0.85280  1.0000
  H   H175      1.0  0.78840  0.07840  0.14720  1.0000
  H   H176      1.0  0.96160  0.39720  0.82840  1.0000
  H   H177      1.0  0.46160  0.10280  0.17160  1.0000
  H   H178      1.0  0.71160  0.07840  0.85280  1.0000
  H   H179      1.0  0.21160  0.42160  0.14720  1.0000
  H   H180      1.0  0.53840  0.60280  0.32840  1.0000
  H   H181      1.0  0.03840  0.89720  0.67160  1.0000
  H   H182      1.0  0.28840  0.42160  0.35280  1.0000
  H   H183      1.0  0.28840  0.07840  0.14720  1.0000
  H   H184      1.0  0.46160  0.89720  0.32840  1.0000
  H   H185      1.0  0.96160  0.60280  0.67160  1.0000
  H   H186      1.0  0.21160  0.07840  0.35280  1.0000
  H   H187      1.0  0.08120  0.62240  0.45880  1.0000
  H   H188      1.0  0.58120  0.87760  0.54120  1.0000
  H   H189      1.0  0.33120  0.79120  0.37240  1.0000
  H   H190      1.0  0.83120  0.70880  0.62760  1.0000
  H   H191      1.0  0.91880  0.87760  0.45880  1.0000
  H   H192      1.0  0.41880  0.62240  0.54120  1.0000
  H   H193      1.0  0.66880  0.70880  0.37240  1.0000
  H   H194      1.0  0.16880  0.79120  0.62760  1.0000
  H   H195      1.0  0.58120  0.12240  0.95880  1.0000
  H   H196      1.0  0.08120  0.37760  0.04120  1.0000
  H   H197      1.0  0.83120  0.29120  0.87240  1.0000
  H   H198      1.0  0.33120  0.20880  0.12760  1.0000
  H   H199      1.0  0.41880  0.37760  0.95880  1.0000
  H   H200      1.0  0.91880  0.12240  0.04120  1.0000
  H   H201      1.0  0.16880  0.20880  0.87240  1.0000
  H   H202      1.0  0.66880  0.29120  0.12760  1.0000
  H   H203      1.0  0.91880  0.37760  0.54120  1.0000
  H   H204      1.0  0.41880  0.12240  0.45880  1.0000
  H   H205      1.0  0.16880  0.70880  0.12760  1.0000
  H   H206      1.0  0.66880  0.79120  0.87240  1.0000
  H   H207      1.0  0.08120  0.12240  0.54120  1.0000
  H   H208      1.0  0.58120  0.37760  0.45880  1.0000
  H   H209      1.0  0.83120  0.79120  0.12760  1.0000
  H   H210      1.0  0.33120  0.70880  0.87240  1.0000
  H   H211      1.0  0.41880  0.87760  0.04120  1.0000
  H   H212      1.0  0.91880  0.62240  0.95880  1.0000
  H   H213      1.0  0.16880  0.70880  0.62760  1.0000
  H   H214      1.0  0.16880  0.79120  0.87240  1.0000
  H   H215      1.0  0.58120  0.62240  0.04120  1.0000
  H   H216      1.0  0.08120  0.87760  0.95880  1.0000
  H   H217      1.0  0.33120  0.79120  0.62760  1.0000
  H   H218      1.0  0.88600  0.74430  0.18370  1.0000
  H   H219      1.0  0.38600  0.75570  0.81630  1.0000
  H   H220      1.0  0.13600  0.06630  0.49430  1.0000
  H   H221      1.0  0.63600  0.43370  0.50570  1.0000
  H   H222      1.0  0.11400  0.75570  0.18370  1.0000
  H   H223      1.0  0.61400  0.74430  0.81630  1.0000
  H   H224      1.0  0.86400  0.43370  0.49430  1.0000
  H   H225      1.0  0.36400  0.06630  0.50570  1.0000
  H   H226      1.0  0.38600  0.24430  0.68370  1.0000
  H   H227      1.0  0.88600  0.25570  0.31630  1.0000
  H   H228      1.0  0.63600  0.56630  0.99430  1.0000
  H   H229      1.0  0.13600  0.93370  0.00570  1.0000
  H   H230      1.0  0.61400  0.25570  0.68370  1.0000
  H   H231      1.0  0.11400  0.24430  0.31630  1.0000
  H   H232      1.0  0.36400  0.93370  0.99430  1.0000
  H   H233      1.0  0.86400  0.56630  0.00570  1.0000
  H   H234      1.0  0.11400  0.25570  0.81630  1.0000
  H   H235      1.0  0.61400  0.24430  0.18370  1.0000
  H   H236      1.0  0.36400  0.43370  0.00570  1.0000
  H   H237      1.0  0.86400  0.06630  0.99430  1.0000
  H   H238      1.0  0.88600  0.24430  0.81630  1.0000
  H   H239      1.0  0.38600  0.25570  0.18370  1.0000
  H   H240      1.0  0.63600  0.06630  0.00570  1.0000
  H   H241      1.0  0.13600  0.43370  0.99430  1.0000
  H   H242      1.0  0.61400  0.75570  0.31630  1.0000
  H   H243      1.0  0.11400  0.74430  0.68370  1.0000
  H   H244      1.0  0.36400  0.43370  0.50570  1.0000
  H   H245      1.0  0.36400  0.06630  0.99430  1.0000
  H   H246      1.0  0.38600  0.74430  0.31630  1.0000
  H   H247      1.0  0.88600  0.75570  0.68370  1.0000
  H   H248      1.0  0.13600  0.06630  0.50570  1.0000
  C   C1        1.0  0.11860  0.69744  0.30569  1.0000
  C   C2        1.0  0.61860  0.80256  0.69431  1.0000
  C   C3        1.0  0.36860  0.94431  0.44744  1.0000
  C   C4        1.0  0.86860  0.55569  0.55256  1.0000
  C   C5        1.0  0.88140  0.80256  0.30569  1.0000
  C   C6        1.0  0.38140  0.69744  0.69431  1.0000
  C   C7        1.0  0.63140  0.55569  0.44744  1.0000
  C   C8        1.0  0.13140  0.94431  0.55256  1.0000
  C   C9        1.0  0.61860  0.19744  0.80569  1.0000
  C   C10       1.0  0.11860  0.30256  0.19431  1.0000
  C   C11       1.0  0.86860  0.44431  0.94744  1.0000
  C   C12       1.0  0.36860  0.05569  0.05256  1.0000
  C   C13       1.0  0.38140  0.30256  0.80569  1.0000
  C   C14       1.0  0.88140  0.19744  0.19431  1.0000
  C   C15       1.0  0.13140  0.05569  0.94744  1.0000
  C   C16       1.0  0.63140  0.44431  0.05256  1.0000
  C   C17       1.0  0.88140  0.30256  0.69431  1.0000
  C   C18       1.0  0.38140  0.19744  0.30569  1.0000
  C   C19       1.0  0.13140  0.55569  0.05256  1.0000
  C   C20       1.0  0.63140  0.94431  0.94744  1.0000
  C   C21       1.0  0.11860  0.19744  0.69431  1.0000
  C   C22       1.0  0.61860  0.30256  0.30569  1.0000
  C   C23       1.0  0.86860  0.94431  0.05256  1.0000
  C   C24       1.0  0.36860  0.55569  0.94744  1.0000
  C   C25       1.0  0.38140  0.80256  0.19431  1.0000
  C   C26       1.0  0.88140  0.69744  0.80569  1.0000
  C   C27       1.0  0.13140  0.55569  0.55256  1.0000
  C   C28       1.0  0.13140  0.94431  0.94744  1.0000
  C   C29       1.0  0.61860  0.69744  0.19431  1.0000
  C   C30       1.0  0.11860  0.80256  0.80569  1.0000
  C   C31       1.0  0.36860  0.94431  0.55256  1.0000
  C   C32       1.0  0.15070  0.66505  0.33506  1.0000
  C   C33       1.0  0.65070  0.83495  0.66494  1.0000
  C   C34       1.0  0.40070  0.91494  0.41505  1.0000
  C   C35       1.0  0.90070  0.58506  0.58495  1.0000
  C   C36       1.0  0.84930  0.83495  0.33506  1.0000
  C   C37       1.0  0.34930  0.66505  0.66494  1.0000
  C   C38       1.0  0.59930  0.58506  0.41505  1.0000
  C   C39       1.0  0.09930  0.91494  0.58495  1.0000
  C   C40       1.0  0.65070  0.16505  0.83506  1.0000
  C   C41       1.0  0.15070  0.33495  0.16494  1.0000
  C   C42       1.0  0.90070  0.41494  0.91505  1.0000
  C   C43       1.0  0.40070  0.08506  0.08495  1.0000
  C   C44       1.0  0.34930  0.33495  0.83506  1.0000
  C   C45       1.0  0.84930  0.16505  0.16494  1.0000
  C   C46       1.0  0.09930  0.08506  0.91505  1.0000
  C   C47       1.0  0.59930  0.41494  0.08495  1.0000
  C   C48       1.0  0.84930  0.33495  0.66494  1.0000
  C   C49       1.0  0.34930  0.16505  0.33506  1.0000
  C   C50       1.0  0.09930  0.58506  0.08495  1.0000
  C   C51       1.0  0.59930  0.91494  0.91505  1.0000
  C   C52       1.0  0.15070  0.16505  0.66494  1.0000
  C   C53       1.0  0.65070  0.33495  0.33506  1.0000
  C   C54       1.0  0.90070  0.91494  0.08495  1.0000
  C   C55       1.0  0.40070  0.58506  0.91505  1.0000
  C   C56       1.0  0.34930  0.83495  0.16494  1.0000
  C   C57       1.0  0.84930  0.66505  0.83506  1.0000
  C   C58       1.0  0.09930  0.58506  0.58495  1.0000
  C   C59       1.0  0.09930  0.91494  0.91505  1.0000
  C   C60       1.0  0.65070  0.66505  0.16494  1.0000
  C   C61       1.0  0.15070  0.83495  0.83506  1.0000
  C   C62       1.0  0.40070  0.91494  0.58495  1.0000
  C   C63       1.0  0.10860  0.64338  0.36930  1.0000
  C   C64       1.0  0.60860  0.85662  0.63070  1.0000
  C   C65       1.0  0.35860  0.88070  0.39338  1.0000
  C   C66       1.0  0.85860  0.61930  0.60662  1.0000
  C   C67       1.0  0.89140  0.85662  0.36930  1.0000
  C   C68       1.0  0.39140  0.64338  0.63070  1.0000
  C   C69       1.0  0.64140  0.61930  0.39338  1.0000
  C   C70       1.0  0.14140  0.88070  0.60662  1.0000
  C   C71       1.0  0.60860  0.14338  0.86930  1.0000
  C   C72       1.0  0.10860  0.35662  0.13070  1.0000
  C   C73       1.0  0.85860  0.38070  0.89338  1.0000
  C   C74       1.0  0.35860  0.11930  0.10662  1.0000
  C   C75       1.0  0.39140  0.35662  0.86930  1.0000
  C   C76       1.0  0.89140  0.14338  0.13070  1.0000
  C   C77       1.0  0.14140  0.11930  0.89338  1.0000
  C   C78       1.0  0.64140  0.38070  0.10662  1.0000
  C   C79       1.0  0.89140  0.35662  0.63070  1.0000
  C   C80       1.0  0.39140  0.14338  0.36930  1.0000
  C   C81       1.0  0.14140  0.61930  0.10662  1.0000
  C   C82       1.0  0.64140  0.88070  0.89338  1.0000
  C   C83       1.0  0.10860  0.14338  0.63070  1.0000
  C   C84       1.0  0.60860  0.35662  0.36930  1.0000
  C   C85       1.0  0.85860  0.88070  0.10662  1.0000
  C   C86       1.0  0.35860  0.61930  0.89338  1.0000
  C   C87       1.0  0.39140  0.85662  0.13070  1.0000
  C   C88       1.0  0.89140  0.64338  0.86930  1.0000
  C   C89       1.0  0.14140  0.61930  0.60662  1.0000
  C   C90       1.0  0.14140  0.88070  0.89338  1.0000
  C   C91       1.0  0.60860  0.64338  0.13070  1.0000
  C   C92       1.0  0.10860  0.85662  0.86930  1.0000
  C   C93       1.0  0.35860  0.88070  0.60662  1.0000
  C   C94       1.0  0.03420  0.65544  0.37245  1.0000
  C   C95       1.0  0.53420  0.84456  0.62755  1.0000
  C   C96       1.0  0.28420  0.87755  0.40544  1.0000
  C   C97       1.0  0.78420  0.62245  0.59456  1.0000
  C   C98       1.0  0.96580  0.84456  0.37245  1.0000
  C   C99       1.0  0.46580  0.65544  0.62755  1.0000
  C   C100      1.0  0.71580  0.62245  0.40544  1.0000
  C   C101      1.0  0.21580  0.87755  0.59456  1.0000
  C   C102      1.0  0.53420  0.15544  0.87245  1.0000
  C   C103      1.0  0.03420  0.34456  0.12755  1.0000
  C   C104      1.0  0.78420  0.37755  0.90544  1.0000
  C   C105      1.0  0.28420  0.12245  0.09456  1.0000
  C   C106      1.0  0.46580  0.34456  0.87245  1.0000
  C   C107      1.0  0.96580  0.15544  0.12755  1.0000
  C   C108      1.0  0.21580  0.12245  0.90544  1.0000
  C   C109      1.0  0.71580  0.37755  0.09456  1.0000
  C   C110      1.0  0.96580  0.34456  0.62755  1.0000
  C   C111      1.0  0.46580  0.15544  0.37245  1.0000
  C   C112      1.0  0.21580  0.62245  0.09456  1.0000
  C   C113      1.0  0.71580  0.87755  0.90544  1.0000
  C   C114      1.0  0.03420  0.15544  0.62755  1.0000
  C   C115      1.0  0.53420  0.34456  0.37245  1.0000
  C   C116      1.0  0.78420  0.87755  0.09456  1.0000
  C   C117      1.0  0.28420  0.62245  0.90544  1.0000
  C   C118      1.0  0.46580  0.84456  0.12755  1.0000
  C   C119      1.0  0.96580  0.65544  0.87245  1.0000
  C   C120      1.0  0.21580  0.62245  0.59456  1.0000
  C   C121      1.0  0.21580  0.87755  0.90544  1.0000
  C   C122      1.0  0.53420  0.65544  0.12755  1.0000
  C   C123      1.0  0.03420  0.84456  0.87245  1.0000
  C   C124      1.0  0.28420  0.87755  0.59456  1.0000
  C   C125      1.0  0.00530  0.68805  0.34188  1.0000
  C   C126      1.0  0.50530  0.81195  0.65812  1.0000
  C   C127      1.0  0.25530  0.90812  0.43805  1.0000
  C   C128      1.0  0.75530  0.59188  0.56195  1.0000
  C   C129      1.0  0.99470  0.81195  0.34188  1.0000
  C   C130      1.0  0.49470  0.68805  0.65812  1.0000
  C   C131      1.0  0.74470  0.59188  0.43805  1.0000
  C   C132      1.0  0.24470  0.90812  0.56195  1.0000
  C   C133      1.0  0.50530  0.18805  0.84188  1.0000
  C   C134      1.0  0.00530  0.31195  0.15812  1.0000
  C   C135      1.0  0.75530  0.40812  0.93805  1.0000
  C   C136      1.0  0.25530  0.09188  0.06195  1.0000
  C   C137      1.0  0.49470  0.31195  0.84188  1.0000
  C   C138      1.0  0.99470  0.18805  0.15812  1.0000
  C   C139      1.0  0.24470  0.09188  0.93805  1.0000
  C   C140      1.0  0.74470  0.40812  0.06195  1.0000
  C   C141      1.0  0.99470  0.31195  0.65812  1.0000
  C   C142      1.0  0.49470  0.18805  0.34188  1.0000
  C   C143      1.0  0.24470  0.59188  0.06195  1.0000
  C   C144      1.0  0.74470  0.90812  0.93805  1.0000
  C   C145      1.0  0.00530  0.18805  0.65812  1.0000
  C   C146      1.0  0.50530  0.31195  0.34188  1.0000
  C   C147      1.0  0.75530  0.90812  0.06195  1.0000
  C   C148      1.0  0.25530  0.59188  0.93805  1.0000
  C   C149      1.0  0.49470  0.81195  0.15812  1.0000
  C   C150      1.0  0.99470  0.68805  0.84188  1.0000
  C   C151      1.0  0.24470  0.59188  0.56195  1.0000
  C   C152      1.0  0.24470  0.90812  0.93805  1.0000
  C   C153      1.0  0.50530  0.68805  0.15812  1.0000
  C   C154      1.0  0.00530  0.81195  0.84188  1.0000
  C   C155      1.0  0.25530  0.90812  0.56195  1.0000
  C   C156      1.0  0.97540  0.83571  0.20560  1.0000
  C   C157      1.0  0.47540  0.66429  0.79440  1.0000
  C   C158      1.0  0.22540  0.04440  0.58571  1.0000
  C   C159      1.0  0.72540  0.45560  0.41429  1.0000
  C   C160      1.0  0.02460  0.66429  0.20560  1.0000
  C   C161      1.0  0.52460  0.83571  0.79440  1.0000
  C   C162      1.0  0.77460  0.45560  0.58571  1.0000
  C   C163      1.0  0.27460  0.04440  0.41429  1.0000
  C   C164      1.0  0.47540  0.33571  0.70560  1.0000
  C   C165      1.0  0.97540  0.16429  0.29440  1.0000
  C   C166      1.0  0.72540  0.54440  0.08571  1.0000
  C   C167      1.0  0.22540  0.95560  0.91429  1.0000
  C   C168      1.0  0.52460  0.16429  0.70560  1.0000
  C   C169      1.0  0.02460  0.33571  0.29440  1.0000
  C   C170      1.0  0.27460  0.95560  0.08571  1.0000
  C   C171      1.0  0.77460  0.54440  0.91429  1.0000
  C   C172      1.0  0.02460  0.16429  0.79440  1.0000
  C   C173      1.0  0.52460  0.33571  0.20560  1.0000
  C   C174      1.0  0.27460  0.45560  0.91429  1.0000
  C   C175      1.0  0.77460  0.04440  0.08571  1.0000
  C   C176      1.0  0.97540  0.33571  0.79440  1.0000
  C   C177      1.0  0.47540  0.16429  0.20560  1.0000
  C   C178      1.0  0.72540  0.04440  0.91429  1.0000
  C   C179      1.0  0.22540  0.45560  0.08571  1.0000
  C   C180      1.0  0.52460  0.66429  0.29440  1.0000
  C   C181      1.0  0.02460  0.83571  0.70560  1.0000
  C   C182      1.0  0.27460  0.45560  0.41429  1.0000
  C   C183      1.0  0.27460  0.04440  0.08571  1.0000
  C   C184      1.0  0.47540  0.83571  0.29440  1.0000
  C   C185      1.0  0.97540  0.66429  0.70560  1.0000
  C   C186      1.0  0.22540  0.04440  0.41429  1.0000
  C   C187      1.0  0.94560  0.86550  0.17300  1.0000
  C   C188      1.0  0.44560  0.63450  0.82700  1.0000
  C   C189      1.0  0.19560  0.07700  0.61550  1.0000
  C   C190      1.0  0.69560  0.42300  0.38450  1.0000
  C   C191      1.0  0.05440  0.63450  0.17300  1.0000
  C   C192      1.0  0.55440  0.86550  0.82700  1.0000
  C   C193      1.0  0.80440  0.42300  0.61550  1.0000
  C   C194      1.0  0.30440  0.07700  0.38450  1.0000
  C   C195      1.0  0.44560  0.36550  0.67300  1.0000
  C   C196      1.0  0.94560  0.13450  0.32700  1.0000
  C   C197      1.0  0.69560  0.57700  0.11550  1.0000
  C   C198      1.0  0.19560  0.92300  0.88450  1.0000
  C   C199      1.0  0.55440  0.13450  0.67300  1.0000
  C   C200      1.0  0.05440  0.36550  0.32700  1.0000
  C   C201      1.0  0.30440  0.92300  0.11550  1.0000
  C   C202      1.0  0.80440  0.57700  0.88450  1.0000
  C   C203      1.0  0.05440  0.13450  0.82700  1.0000
  C   C204      1.0  0.55440  0.36550  0.17300  1.0000
  C   C205      1.0  0.30440  0.42300  0.88450  1.0000
  C   C206      1.0  0.80440  0.07700  0.11550  1.0000
  C   C207      1.0  0.94560  0.36550  0.82700  1.0000
  C   C208      1.0  0.44560  0.13450  0.17300  1.0000
  C   C209      1.0  0.69560  0.07700  0.88450  1.0000
  C   C210      1.0  0.19560  0.42300  0.11550  1.0000
  C   C211      1.0  0.55440  0.63450  0.32700  1.0000
  C   C212      1.0  0.05440  0.86550  0.67300  1.0000
  C   C213      1.0  0.30440  0.42300  0.38450  1.0000
  C   C214      1.0  0.30440  0.07700  0.11550  1.0000
  C   C215      1.0  0.44560  0.86550  0.32700  1.0000
  C   C216      1.0  0.94560  0.63450  0.67300  1.0000
  C   C217      1.0  0.19560  0.07700  0.38450  1.0000
  C   C218      1.0  0.14220  0.60806  0.40070  1.0000
  C   C219      1.0  0.64220  0.89194  0.59930  1.0000
  C   C220      1.0  0.39220  0.84930  0.35806  1.0000
  C   C221      1.0  0.89220  0.65070  0.64194  1.0000
  C   C222      1.0  0.85780  0.89194  0.40070  1.0000
  C   C223      1.0  0.35780  0.60806  0.59930  1.0000
  C   C224      1.0  0.60780  0.65070  0.35806  1.0000
  C   C225      1.0  0.10780  0.84930  0.64194  1.0000
  C   C226      1.0  0.64220  0.10806  0.90070  1.0000
  C   C227      1.0  0.14220  0.39194  0.09930  1.0000
  C   C228      1.0  0.89220  0.34930  0.85806  1.0000
  C   C229      1.0  0.39220  0.15070  0.14194  1.0000
  C   C230      1.0  0.35780  0.39194  0.90070  1.0000
  C   C231      1.0  0.85780  0.10806  0.09930  1.0000
  C   C232      1.0  0.10780  0.15070  0.85806  1.0000
  C   C233      1.0  0.60780  0.34930  0.14194  1.0000
  C   C234      1.0  0.85780  0.39194  0.59930  1.0000
  C   C235      1.0  0.35780  0.10806  0.40070  1.0000
  C   C236      1.0  0.10780  0.65070  0.14194  1.0000
  C   C237      1.0  0.60780  0.84930  0.85806  1.0000
  C   C238      1.0  0.14220  0.10806  0.59930  1.0000
  C   C239      1.0  0.64220  0.39194  0.40070  1.0000
  C   C240      1.0  0.89220  0.84930  0.14194  1.0000
  C   C241      1.0  0.39220  0.65070  0.85806  1.0000
  C   C242      1.0  0.35780  0.89194  0.09930  1.0000
  C   C243      1.0  0.85780  0.60806  0.90070  1.0000
  C   C244      1.0  0.10780  0.65070  0.64194  1.0000
  C   C245      1.0  0.10780  0.84930  0.85806  1.0000
  C   C246      1.0  0.64220  0.60806  0.09930  1.0000
  C   C247      1.0  0.14220  0.89194  0.90070  1.0000
  C   C248      1.0  0.39220  0.84930  0.64194  1.0000
  C   C249      1.0  0.11920  0.60291  0.44646  1.0000
  C   C250      1.0  0.61920  0.89709  0.55354  1.0000
  C   C251      1.0  0.36920  0.80354  0.35291  1.0000
  C   C252      1.0  0.86920  0.69646  0.64709  1.0000
  C   C253      1.0  0.88080  0.89709  0.44646  1.0000
  C   C254      1.0  0.38080  0.60291  0.55354  1.0000
  C   C255      1.0  0.63080  0.69646  0.35291  1.0000
  C   C256      1.0  0.13080  0.80354  0.64709  1.0000
  C   C257      1.0  0.61920  0.10291  0.94646  1.0000
  C   C258      1.0  0.11920  0.39709  0.05354  1.0000
  C   C259      1.0  0.86920  0.30354  0.85291  1.0000
  C   C260      1.0  0.36920  0.19646  0.14709  1.0000
  C   C261      1.0  0.38080  0.39709  0.94646  1.0000
  C   C262      1.0  0.88080  0.10291  0.05354  1.0000
  C   C263      1.0  0.13080  0.19646  0.85291  1.0000
  C   C264      1.0  0.63080  0.30354  0.14709  1.0000
  C   C265      1.0  0.88080  0.39709  0.55354  1.0000
  C   C266      1.0  0.38080  0.10291  0.44646  1.0000
  C   C267      1.0  0.13080  0.69646  0.14709  1.0000
  C   C268      1.0  0.63080  0.80354  0.85291  1.0000
  C   C269      1.0  0.11920  0.10291  0.55354  1.0000
  C   C270      1.0  0.61920  0.39709  0.44646  1.0000
  C   C271      1.0  0.86920  0.80354  0.14709  1.0000
  C   C272      1.0  0.36920  0.69646  0.85291  1.0000
  C   C273      1.0  0.38080  0.89709  0.05354  1.0000
  C   C274      1.0  0.88080  0.60291  0.94646  1.0000
  C   C275      1.0  0.13080  0.69646  0.64709  1.0000
  C   C276      1.0  0.13080  0.80354  0.85291  1.0000
  C   C277      1.0  0.61920  0.60291  0.05354  1.0000
  C   C278      1.0  0.11920  0.89709  0.94646  1.0000
  C   C279      1.0  0.36920  0.80354  0.64709  1.0000
  C   C280      1.0  0.90200  0.77583  0.18080  1.0000
  C   C281      1.0  0.40200  0.72417  0.81920  1.0000
  C   C282      1.0  0.15200  0.06920  0.52583  1.0000
  C   C283      1.0  0.65200  0.43080  0.47417  1.0000
  C   C284      1.0  0.09800  0.72417  0.18080  1.0000
  C   C285      1.0  0.59800  0.77583  0.81920  1.0000
  C   C286      1.0  0.84800  0.43080  0.52583  1.0000
  C   C287      1.0  0.34800  0.06920  0.47417  1.0000
  C   C288      1.0  0.40200  0.27583  0.68080  1.0000
  C   C289      1.0  0.90200  0.22417  0.31920  1.0000
  C   C290      1.0  0.65200  0.56920  0.02583  1.0000
  C   C291      1.0  0.15200  0.93080  0.97417  1.0000
  C   C292      1.0  0.59800  0.22417  0.68080  1.0000
  C   C293      1.0  0.09800  0.27583  0.31920  1.0000
  C   C294      1.0  0.34800  0.93080  0.02583  1.0000
  C   C295      1.0  0.84800  0.56920  0.97417  1.0000
  C   C296      1.0  0.09800  0.22417  0.81920  1.0000
  C   C297      1.0  0.59800  0.27583  0.18080  1.0000
  C   C298      1.0  0.34800  0.43080  0.97417  1.0000
  C   C299      1.0  0.84800  0.06920  0.02583  1.0000
  C   C300      1.0  0.90200  0.27583  0.81920  1.0000
  C   C301      1.0  0.40200  0.22417  0.18080  1.0000
  C   C302      1.0  0.65200  0.06920  0.97417  1.0000
  C   C303      1.0  0.15200  0.43080  0.02583  1.0000
  C   C304      1.0  0.59800  0.72417  0.31920  1.0000
  C   C305      1.0  0.09800  0.77583  0.68080  1.0000
  C   C306      1.0  0.34800  0.43080  0.47417  1.0000
  C   C307      1.0  0.34800  0.06920  0.02583  1.0000
  C   C308      1.0  0.40200  0.77583  0.31920  1.0000
  C   C309      1.0  0.90200  0.72417  0.68080  1.0000
  C   C310      1.0  0.15200  0.06920  0.47417  1.0000
  C   C311      1.0  0.42700  0.97220  0.63060  0.2100
  C   C312      1.0  0.92700  0.52780  0.36940  0.2100
  C   C313      1.0  0.32300  0.88060  0.72220  0.2100
  C   C314      1.0  0.07300  0.97220  0.36940  0.2100
  C   C315      1.0  0.42700  0.02780  0.86940  0.2100
  C   C316      1.0  0.07300  0.02780  0.13060  0.2100
  C   C317      1.0  0.07300  0.52780  0.36940  0.2100
  C   C318      1.0  0.07300  0.97220  0.13060  0.2100
  C   C319      1.0  0.42700  0.97220  0.36940  0.2100
  C   C320      1.0  0.41830  0.98510  0.63160  0.7900
  C   C321      1.0  0.91830  0.51490  0.36840  0.7900
  C   C322      1.0  0.33170  0.88160  0.73510  0.7900
  C   C323      1.0  0.08170  0.98510  0.36840  0.7900
  C   C324      1.0  0.41830  0.01490  0.86840  0.7900
  C   C325      1.0  0.08170  0.01490  0.13160  0.7900
  C   C326      1.0  0.08170  0.51490  0.36840  0.7900
  C   C327      1.0  0.08170  0.98510  0.13160  0.7900
  C   C328      1.0  0.41830  0.98510  0.36840  0.7900
  S   S1        1.0  0.42590  0.99920  0.57720  0.2100
  S   S2        1.0  0.92590  0.50080  0.42280  0.2100
  S   S3        1.0  0.32410  0.82720  0.74920  0.2100
  S   S4        1.0  0.07410  0.99920  0.42280  0.2100
  S   S5        1.0  0.42590  0.00080  0.92280  0.2100
  S   S6        1.0  0.07410  0.00080  0.07720  0.2100
  S   S7        1.0  0.07410  0.50080  0.42280  0.2100
  S   S8        1.0  0.42590  0.99920  0.42280  0.2100
  S   S9        1.0  0.42845  0.97252  0.56917  0.7900
  S   S10       1.0  0.92845  0.52748  0.43083  0.7900
  S   S11       1.0  0.32155  0.81917  0.72252  0.7900
  S   S12       1.0  0.07155  0.97252  0.43083  0.7900
  S   S13       1.0  0.42845  0.02748  0.93083  0.7900
  S   S14       1.0  0.07155  0.02748  0.06917  0.7900
  S   S15       1.0  0.07155  0.52748  0.43083  0.7900
  S   S16       1.0  0.07155  0.97252  0.06917  0.7900
  S   S17       1.0  0.42845  0.97252  0.43083  0.7900
  N   N1        1.0  0.04600  0.70869  0.30864  1.0000
  N   N2        1.0  0.54600  0.79131  0.69136  1.0000
  N   N3        1.0  0.29600  0.94136  0.45869  1.0000
  N   N4        1.0  0.79600  0.55864  0.54131  1.0000
  N   N5        1.0  0.95400  0.79131  0.30864  1.0000
  N   N6        1.0  0.45400  0.70869  0.69136  1.0000
  N   N7        1.0  0.70400  0.55864  0.45869  1.0000
  N   N8        1.0  0.20400  0.94136  0.54131  1.0000
  N   N9        1.0  0.54600  0.20869  0.80864  1.0000
  N   N10       1.0  0.04600  0.29131  0.19136  1.0000
  N   N11       1.0  0.79600  0.44136  0.95869  1.0000
  N   N12       1.0  0.29600  0.05864  0.04131  1.0000
  N   N13       1.0  0.45400  0.29131  0.80864  1.0000
  N   N14       1.0  0.95400  0.20869  0.19136  1.0000
  N   N15       1.0  0.20400  0.05864  0.95869  1.0000
  N   N16       1.0  0.70400  0.44136  0.04131  1.0000
  N   N17       1.0  0.95400  0.29131  0.69136  1.0000
  N   N18       1.0  0.45400  0.20869  0.30864  1.0000
  N   N19       1.0  0.20400  0.55864  0.04131  1.0000
  N   N20       1.0  0.70400  0.94136  0.95869  1.0000
  N   N21       1.0  0.04600  0.20869  0.69136  1.0000
  N   N22       1.0  0.54600  0.29131  0.30864  1.0000
  N   N23       1.0  0.79600  0.94136  0.04131  1.0000
  N   N24       1.0  0.29600  0.55864  0.95869  1.0000
  N   N25       1.0  0.45400  0.79131  0.19136  1.0000
  N   N26       1.0  0.95400  0.70869  0.80864  1.0000
  N   N27       1.0  0.20400  0.55864  0.54131  1.0000
  N   N28       1.0  0.20400  0.94136  0.95869  1.0000
  N   N29       1.0  0.54600  0.70869  0.19136  1.0000
  N   N30       1.0  0.04600  0.79131  0.80864  1.0000
  N   N31       1.0  0.29600  0.94136  0.54131  1.0000
  N   N32       1.0  0.95490  0.79122  0.20935  1.0000
  N   N33       1.0  0.45490  0.70878  0.79065  1.0000
  N   N34       1.0  0.20490  0.04065  0.54122  1.0000
  N   N35       1.0  0.70490  0.45935  0.45878  1.0000
  N   N36       1.0  0.04510  0.70878  0.20935  1.0000
  N   N37       1.0  0.54510  0.79122  0.79065  1.0000
  N   N38       1.0  0.79510  0.45935  0.54122  1.0000
  N   N39       1.0  0.29510  0.04065  0.45878  1.0000
  N   N40       1.0  0.45490  0.29122  0.70935  1.0000
  N   N41       1.0  0.95490  0.20878  0.29065  1.0000
  N   N42       1.0  0.70490  0.54065  0.04122  1.0000
  N   N43       1.0  0.20490  0.95935  0.95878  1.0000
  N   N44       1.0  0.54510  0.20878  0.70935  1.0000
  N   N45       1.0  0.04510  0.29122  0.29065  1.0000
  N   N46       1.0  0.29510  0.95935  0.04122  1.0000
  N   N47       1.0  0.79510  0.54065  0.95878  1.0000
  N   N48       1.0  0.04510  0.20878  0.79065  1.0000
  N   N49       1.0  0.54510  0.29122  0.20935  1.0000
  N   N50       1.0  0.29510  0.45935  0.95878  1.0000
  N   N51       1.0  0.79510  0.04065  0.04122  1.0000
  N   N52       1.0  0.95490  0.29122  0.79065  1.0000
  N   N53       1.0  0.45490  0.20878  0.20935  1.0000
  N   N54       1.0  0.70490  0.04065  0.95878  1.0000
  N   N55       1.0  0.20490  0.45935  0.04122  1.0000
  N   N56       1.0  0.54510  0.70878  0.29065  1.0000
  N   N57       1.0  0.04510  0.79122  0.70935  1.0000
  N   N58       1.0  0.29510  0.45935  0.45878  1.0000
  N   N59       1.0  0.29510  0.04065  0.04122  1.0000
  N   N60       1.0  0.45490  0.79122  0.29065  1.0000
  N   N61       1.0  0.95490  0.70878  0.70935  1.0000
  N   N62       1.0  0.20490  0.04065  0.45878  1.0000
  O   O1        1.0  0.36066  0.99073  0.55014  1.0000
  O   O2        1.0  0.86066  0.50927  0.44986  1.0000
  O   O3        1.0  0.38934  0.80014  0.74073  1.0000
  O   O4        1.0  0.13934  0.99073  0.44986  1.0000
  O   O5        1.0  0.36066  0.00927  0.94986  1.0000
  O   O6        1.0  0.13934  0.00927  0.05014  1.0000
  O   O7        1.0  0.13934  0.50927  0.44986  1.0000
  O   O8        1.0  0.13934  0.99073  0.05014  1.0000
  O   O9        1.0  0.36066  0.99073  0.44986  1.0000
  O   O10       1.0  0.49520  0.99370  0.55680  1.0000
  O   O11       1.0  0.99520  0.50630  0.44320  1.0000
  O   O12       1.0  0.25480  0.80680  0.74370  1.0000
  O   O13       1.0  0.00480  0.99370  0.44320  1.0000
  O   O14       1.0  0.49520  0.00630  0.94320  1.0000
  O   O15       1.0  0.00480  0.00630  0.05680  1.0000
  O   O16       1.0  0.00480  0.50630  0.44320  1.0000
  O   O17       1.0  0.00480  0.99370  0.05680  1.0000
  O   O18       1.0  0.49520  0.99370  0.44320  1.0000
  O   O19       1.0  0.42270  0.04760  0.59210  0.2100
  O   O20       1.0  0.92270  0.45240  0.40790  0.2100
  O   O21       1.0  0.32730  0.84210  0.79760  0.2100
  O   O22       1.0  0.07730  0.04760  0.40790  0.2100
  O   O23       1.0  0.42270  0.95240  0.90790  0.2100
  O   O24       1.0  0.07730  0.95240  0.09210  0.2100
  O   O25       1.0  0.07730  0.45240  0.40790  0.2100
  O   O26       1.0  0.07730  0.04760  0.09210  0.2100
  O   O27       1.0  0.42270  0.04760  0.40790  0.2100
  O   O28       1.0  0.08160  0.64360  0.56640  0.5000
  O   O29       1.0  0.16840  0.68360  0.60640  0.5000
  O   O30       1.0  0.91840  0.35640  0.93360  0.5000
  O   O31       1.0  0.58160  0.14360  0.93360  0.5000
  O   O32       1.0  0.12400  0.47870  0.29080  0.5000
  O   O33       1.0  0.12400  0.52130  0.20920  0.5000
  O   O34       1.0  0.12600  0.45920  0.22870  0.5000
  O   O35       1.0  0.12400  0.02130  0.29080  0.5000
  O   O36       1.0  0.12400  0.47870  0.20920  0.5000
  O   O37       1.0  0.12600  0.54080  0.27130  0.5000
  O   O38       1.0  0.43170  0.92237  0.56600  0.7900
  O   O39       1.0  0.93170  0.57763  0.43400  0.7900
  O   O40       1.0  0.31830  0.81600  0.67237  0.7900
  O   O41       1.0  0.06830  0.92237  0.43400  0.7900
  O   O42       1.0  0.43170  0.07763  0.93400  0.7900
  O   O43       1.0  0.06830  0.07763  0.06600  0.7900
  O   O44       1.0  0.06830  0.57763  0.43400  0.7900
  O   O45       1.0  0.06830  0.92237  0.06600  0.7900
  O   O46       1.0  0.43170  0.92237  0.43400  0.7900
  F   F1        1.0  0.40000  0.92480  0.62620  0.2100
  F   F2        1.0  0.90000  0.57520  0.37380  0.2100
  F   F3        1.0  0.35000  0.87620  0.67480  0.2100
  F   F4        1.0  0.10000  0.92480  0.37380  0.2100
  F   F5        1.0  0.40000  0.07520  0.87380  0.2100
  F   F6        1.0  0.10000  0.07520  0.12620  0.2100
  F   F7        1.0  0.10000  0.57520  0.37380  0.2100
  F   F8        1.0  0.10000  0.92480  0.12620  0.2100
  F   F9        1.0  0.40000  0.92480  0.37380  0.2100
  F   F10       1.0  0.50900  0.97100  0.63150  0.2100
  F   F11       1.0  0.00900  0.52900  0.36850  0.2100
  F   F12       1.0  0.24100  0.88150  0.72100  0.2100
  F   F13       1.0  0.99100  0.97100  0.36850  0.2100
  F   F14       1.0  0.50900  0.02900  0.86850  0.2100
  F   F15       1.0  0.99100  0.02900  0.13150  0.2100
  F   F16       1.0  0.99100  0.52900  0.36850  0.2100
  F   F17       1.0  0.99100  0.97100  0.13150  0.2100
  F   F18       1.0  0.50900  0.97100  0.36850  0.2100
  F   F19       1.0  0.38000  0.00870  0.64920  0.2100
  F   F20       1.0  0.88000  0.49130  0.35080  0.2100
  F   F21       1.0  0.37000  0.89920  0.75870  0.2100
  F   F22       1.0  0.12000  0.00870  0.35080  0.2100
  F   F23       1.0  0.38000  0.99130  0.85080  0.2100
  F   F24       1.0  0.12000  0.99130  0.14920  0.2100
  F   F25       1.0  0.12000  0.49130  0.35080  0.2100
  F   F26       1.0  0.12000  0.00870  0.14920  0.2100
  F   F27       1.0  0.38000  0.00870  0.35080  0.2100
  F   F28       1.0  0.42270  0.03190  0.63700  0.7900
  F   F29       1.0  0.92270  0.46810  0.36300  0.7900
  F   F30       1.0  0.32730  0.88700  0.78190  0.7900
  F   F31       1.0  0.07730  0.03190  0.36300  0.7900
  F   F32       1.0  0.42270  0.96810  0.86300  0.7900
  F   F33       1.0  0.07730  0.96810  0.13700  0.7900
  F   F34       1.0  0.07730  0.46810  0.36300  0.7900
  F   F35       1.0  0.07730  0.03190  0.13700  0.7900
  F   F36       1.0  0.42270  0.03190  0.36300  0.7900
  F   F37       1.0  0.47180  0.96550  0.65720  0.7900
  F   F38       1.0  0.97180  0.53450  0.34280  0.7900
  F   F39       1.0  0.27820  0.90720  0.71550  0.7900
  F   F40       1.0  0.02820  0.96550  0.34280  0.7900
  F   F41       1.0  0.47180  0.03450  0.84280  0.7900
  F   F42       1.0  0.02820  0.03450  0.15720  0.7900
  F   F43       1.0  0.02820  0.53450  0.34280  0.7900
  F   F44       1.0  0.02820  0.96550  0.15720  0.7900
  F   F45       1.0  0.47180  0.96550  0.34280  0.7900
  F   F46       1.0  0.35380  0.97090  0.64890  0.7900
  F   F47       1.0  0.85380  0.52910  0.35110  0.7900
  F   F48       1.0  0.39620  0.89890  0.72090  0.7900
  F   F49       1.0  0.14620  0.97090  0.35110  0.7900
  F   F50       1.0  0.35380  0.02910  0.85110  0.7900
  F   F51       1.0  0.14620  0.02910  0.14890  0.7900
  F   F52       1.0  0.14620  0.52910  0.35110  0.7900
  F   F53       1.0  0.14620  0.97090  0.14890  0.7900
  F   F54       1.0  0.35380  0.97090  0.35110  0.7900
